
OS:Version,
  {6090a6fa-6b98-425e-b204-c60b5b55f231}, !- Handle
  1.8.0;                                  !- Version Identifier

OS:ClimateZones,
  {c74c6d7d-85c3-4c5f-b909-b6a4bb30ec9d}, !- Handle
  ,                                       !- Active Institution
  ,                                       !- Active Year
  ASHRAE,                                 !- Climate Zone Institution Name 1
  ANSI/ASHRAE Standard 169,               !- Climate Zone Document Name 1
  2006,                                   !- Climate Zone Document Year 1
  ,                                       !- Climate Zone Value 1
  CEC,                                    !- Climate Zone Institution Name 2
  California Climate Zone Descriptions,   !- Climate Zone Document Name 2
  1995,                                   !- Climate Zone Document Year 2
  ;                                       !- Climate Zone Value 2

OS:LifeCycleCost:Parameters,
  {35413d64-1e20-4742-8ac9-4ad9d5289584}, !- Handle
  FEMP,                                   !- Analysis Type
  ,                                       !- Discounting Convention
  ,                                       !- Inflation Approach
  ,                                       !- Real Discount Rate
  ,                                       !- Nominal Discount Rate
  ,                                       !- Inflation
  ,                                       !- Base Date Month
  ,                                       !- Base Date Year
  ,                                       !- Service Date Month
  ,                                       !- Service Date Year
  ,                                       !- Length of Study Period in Years
  ,                                       !- Tax Rate
  ,                                       !- Depreciation Method
  Yes;                                    !- Use NIST Fuel Escalation Rates

OS:YearDescription,
  {596232e3-ee83-4ff5-9185-17742d52816b}; !- Handle

OS:Building,
  {5375ca97-26b2-41cf-bfaf-78c80c5cdaa8}, !- Handle
  Building 1,                             !- Name
  ,                                       !- Building Sector Type
  ,                                       !- North Axis {deg}
  ,                                       !- Nominal Floor to Floor Height {m}
  ,                                       !- Space Type Name
  ,                                       !- Default Construction Set Name
  ;                                       !- Default Schedule Set Name

OS:Facility,
  {8c4edef9-f5f8-4d5c-99a5-38ba8cf56ee7}; !- Handle

OS:ThermalZone,
  {d9989cd8-cae8-4509-9dd8-3c4dfefdf2af}, !- Handle
  Thermal Zone 1,                         !- Name
  ,                                       !- Multiplier
  ,                                       !- Ceiling Height {m}
  ,                                       !- Volume {m3}
  ,                                       !- Floor Area {m2}
  ,                                       !- Zone Inside Convection Algorithm
  ,                                       !- Zone Outside Convection Algorithm
  ,                                       !- Zone Conditioning Equipment List Name
  {5eff5e5c-af17-4024-a0ed-e1ccd56c5bd7}, !- Zone Air Inlet Port List
  {72120071-7d99-4a5c-bc58-49181f6ee891}, !- Zone Air Exhaust Port List
  {6087a1e9-d9a8-4740-b9f8-acc8516e832e}, !- Zone Air Node Name
  {e003e16b-630a-4346-a8e0-82163cd20157}, !- Zone Return Air Node Name
  ,                                       !- Primary Daylighting Control Name
  ,                                       !- Fraction of Zone Controlled by Primary Daylighting Control
  ,                                       !- Secondary Daylighting Control Name
  ,                                       !- Fraction of Zone Controlled by Secondary Daylighting Control
  ,                                       !- Illuminance Map Name
  ,                                       !- Group Rendering Name
  {a1991976-c6e6-40ed-b2eb-90e5749f8b0d}, !- Thermostat Name
  No;                                     !- Use Ideal Air Loads

OS:Node,
  {8c6d403c-c219-43c2-ad67-1c78b3cc555d}, !- Handle
  Node 1,                                 !- Name
  {6087a1e9-d9a8-4740-b9f8-acc8516e832e}, !- Inlet Port
  ;                                       !- Outlet Port

OS:Connection,
  {6087a1e9-d9a8-4740-b9f8-acc8516e832e}, !- Handle
  {e59abd63-2988-4851-97c5-bbae56c5e9ad}, !- Name
  {d9989cd8-cae8-4509-9dd8-3c4dfefdf2af}, !- Source Object
  11,                                     !- Outlet Port
  {8c6d403c-c219-43c2-ad67-1c78b3cc555d}, !- Target Object
  2;                                      !- Inlet Port

OS:PortList,
  {5eff5e5c-af17-4024-a0ed-e1ccd56c5bd7}, !- Handle
  Port List 1,                            !- Name
  {d9989cd8-cae8-4509-9dd8-3c4dfefdf2af}, !- HVAC Component
  {b4cb6993-122e-481b-8c08-51115ccfaa10}; !- Port 1

OS:PortList,
  {72120071-7d99-4a5c-bc58-49181f6ee891}, !- Handle
  Port List 2,                            !- Name
  {d9989cd8-cae8-4509-9dd8-3c4dfefdf2af}; !- HVAC Component

OS:Sizing:Zone,
  {d906eb35-226e-4a82-bcab-a170f6d34ef6}, !- Handle
  {d9989cd8-cae8-4509-9dd8-3c4dfefdf2af}, !- Zone or ZoneList Name
  14,                                     !- Zone Cooling Design Supply Air Temperature {C}
  40,                                     !- Zone Heating Design Supply Air Temperature {C}
  0.0085,                                 !- Zone Cooling Design Supply Air Humidity Ratio {kg-H2O/kg-air}
  0.008,                                  !- Zone Heating Design Supply Air Humidity Ratio {kg-H2O/kg-air}
  ,                                       !- Zone Heating Sizing Factor
  ,                                       !- Zone Cooling Sizing Factor
  DesignDay,                              !- Cooling Design Air Flow Method
  ,                                       !- Cooling Design Air Flow Rate {m3/s}
  ,                                       !- Cooling Minimum Air Flow per Zone Floor Area {m3/s-m2}
  ,                                       !- Cooling Minimum Air Flow {m3/s}
  ,                                       !- Cooling Minimum Air Flow Fraction
  DesignDay,                              !- Heating Design Air Flow Method
  ,                                       !- Heating Design Air Flow Rate {m3/s}
  ,                                       !- Heating Maximum Air Flow per Zone Floor Area {m3/s-m2}
  ,                                       !- Heating Maximum Air Flow {m3/s}
  ,                                       !- Heating Maximum Air Flow Fraction
  ,                                       !- Design Zone Air Distribution Effectiveness in Cooling Mode
  ;                                       !- Design Zone Air Distribution Effectiveness in Heating Mode

OS:ZoneHVAC:EquipmentList,
  {9f76963e-66e1-46fe-9469-b4073225b660}, !- Handle
  Zone HVAC Equipment List 1,             !- Name
  {d9989cd8-cae8-4509-9dd8-3c4dfefdf2af}, !- Thermal Zone
  {4da09625-7f4e-4bd0-b154-3b4fc0850fcc}, !- Zone Equipment 1
  1,                                      !- Zone Equipment Cooling Sequence 1
  1;                                      !- Zone Equipment Heating or No-Load Sequence 1

OS:ThermalZone,
  {7524eecc-6e04-45f6-a02b-74eb205d7ba9}, !- Handle
  Thermal Zone 2,                         !- Name
  ,                                       !- Multiplier
  ,                                       !- Ceiling Height {m}
  ,                                       !- Volume {m3}
  ,                                       !- Floor Area {m2}
  ,                                       !- Zone Inside Convection Algorithm
  ,                                       !- Zone Outside Convection Algorithm
  ,                                       !- Zone Conditioning Equipment List Name
  {843617e0-af33-460f-a231-122d9ab24e21}, !- Zone Air Inlet Port List
  {3864f52e-af9c-4c77-83df-75ff8afb4580}, !- Zone Air Exhaust Port List
  {c1c56457-1bc0-4688-810c-bb4158b5a5f8}, !- Zone Air Node Name
  {e2515901-be78-4b49-a2ff-1f050efa2eca}, !- Zone Return Air Node Name
  ,                                       !- Primary Daylighting Control Name
  ,                                       !- Fraction of Zone Controlled by Primary Daylighting Control
  ,                                       !- Secondary Daylighting Control Name
  ,                                       !- Fraction of Zone Controlled by Secondary Daylighting Control
  ,                                       !- Illuminance Map Name
  ,                                       !- Group Rendering Name
  {785f43ba-6f02-45c0-b3a4-c35f8e343cda}, !- Thermostat Name
  No;                                     !- Use Ideal Air Loads

OS:Node,
  {a50600dc-417e-4885-bfd0-00a386747042}, !- Handle
  Node 2,                                 !- Name
  {c1c56457-1bc0-4688-810c-bb4158b5a5f8}, !- Inlet Port
  ;                                       !- Outlet Port

OS:Connection,
  {c1c56457-1bc0-4688-810c-bb4158b5a5f8}, !- Handle
  {9a467ee9-b5f3-4b65-be35-1ce2feed3bdf}, !- Name
  {7524eecc-6e04-45f6-a02b-74eb205d7ba9}, !- Source Object
  11,                                     !- Outlet Port
  {a50600dc-417e-4885-bfd0-00a386747042}, !- Target Object
  2;                                      !- Inlet Port

OS:PortList,
  {843617e0-af33-460f-a231-122d9ab24e21}, !- Handle
  Port List 3,                            !- Name
  {7524eecc-6e04-45f6-a02b-74eb205d7ba9}, !- HVAC Component
  {90e6ae45-a983-4674-b408-33b4a7cf5feb}; !- Port 1

OS:PortList,
  {3864f52e-af9c-4c77-83df-75ff8afb4580}, !- Handle
  Port List 4,                            !- Name
  {7524eecc-6e04-45f6-a02b-74eb205d7ba9}; !- HVAC Component

OS:Sizing:Zone,
  {9c753102-48d6-4277-936d-dc01e45aaa51}, !- Handle
  {7524eecc-6e04-45f6-a02b-74eb205d7ba9}, !- Zone or ZoneList Name
  14,                                     !- Zone Cooling Design Supply Air Temperature {C}
  40,                                     !- Zone Heating Design Supply Air Temperature {C}
  0.0085,                                 !- Zone Cooling Design Supply Air Humidity Ratio {kg-H2O/kg-air}
  0.008,                                  !- Zone Heating Design Supply Air Humidity Ratio {kg-H2O/kg-air}
  ,                                       !- Zone Heating Sizing Factor
  ,                                       !- Zone Cooling Sizing Factor
  DesignDay,                              !- Cooling Design Air Flow Method
  ,                                       !- Cooling Design Air Flow Rate {m3/s}
  ,                                       !- Cooling Minimum Air Flow per Zone Floor Area {m3/s-m2}
  ,                                       !- Cooling Minimum Air Flow {m3/s}
  ,                                       !- Cooling Minimum Air Flow Fraction
  DesignDay,                              !- Heating Design Air Flow Method
  ,                                       !- Heating Design Air Flow Rate {m3/s}
  ,                                       !- Heating Maximum Air Flow per Zone Floor Area {m3/s-m2}
  ,                                       !- Heating Maximum Air Flow {m3/s}
  ,                                       !- Heating Maximum Air Flow Fraction
  ,                                       !- Design Zone Air Distribution Effectiveness in Cooling Mode
  ;                                       !- Design Zone Air Distribution Effectiveness in Heating Mode

OS:ZoneHVAC:EquipmentList,
  {df2db390-bcbb-410b-af24-1d949942da32}, !- Handle
  Zone HVAC Equipment List 2,             !- Name
  {7524eecc-6e04-45f6-a02b-74eb205d7ba9}, !- Thermal Zone
  {f0e8bb3d-b3f2-4ca9-859d-f0c025fe0661}, !- Zone Equipment 1
  1,                                      !- Zone Equipment Cooling Sequence 1
  1;                                      !- Zone Equipment Heating or No-Load Sequence 1

OS:ThermalZone,
  {f92a4d72-0ba0-4fd2-af28-80b31bc39f70}, !- Handle
  Thermal Zone 3,                         !- Name
  ,                                       !- Multiplier
  ,                                       !- Ceiling Height {m}
  ,                                       !- Volume {m3}
  ,                                       !- Floor Area {m2}
  ,                                       !- Zone Inside Convection Algorithm
  ,                                       !- Zone Outside Convection Algorithm
  ,                                       !- Zone Conditioning Equipment List Name
  {d8504ec0-013e-4267-ac8e-85c6ee7d0b6f}, !- Zone Air Inlet Port List
  {b380ff09-88f9-4346-a11e-a34fed8b6f11}, !- Zone Air Exhaust Port List
  {0768608b-f073-456e-b5c2-c28a291676d3}, !- Zone Air Node Name
  {53902931-c5a3-4740-84ad-1e7e1f5e13ef}, !- Zone Return Air Node Name
  ,                                       !- Primary Daylighting Control Name
  ,                                       !- Fraction of Zone Controlled by Primary Daylighting Control
  ,                                       !- Secondary Daylighting Control Name
  ,                                       !- Fraction of Zone Controlled by Secondary Daylighting Control
  ,                                       !- Illuminance Map Name
  ,                                       !- Group Rendering Name
  {a4e07917-0611-4766-95c5-d830d2669202}, !- Thermostat Name
  No;                                     !- Use Ideal Air Loads

OS:Node,
  {7f5af213-7327-4d77-8710-5d51485a577b}, !- Handle
  Node 3,                                 !- Name
  {0768608b-f073-456e-b5c2-c28a291676d3}, !- Inlet Port
  ;                                       !- Outlet Port

OS:Connection,
  {0768608b-f073-456e-b5c2-c28a291676d3}, !- Handle
  {793b764c-7caf-4051-9ffe-8cb76cc3df73}, !- Name
  {f92a4d72-0ba0-4fd2-af28-80b31bc39f70}, !- Source Object
  11,                                     !- Outlet Port
  {7f5af213-7327-4d77-8710-5d51485a577b}, !- Target Object
  2;                                      !- Inlet Port

OS:PortList,
  {d8504ec0-013e-4267-ac8e-85c6ee7d0b6f}, !- Handle
  Port List 5,                            !- Name
  {f92a4d72-0ba0-4fd2-af28-80b31bc39f70}, !- HVAC Component
  {b1696eef-7fc2-4d81-bbef-ebe424808900}; !- Port 1

OS:PortList,
  {b380ff09-88f9-4346-a11e-a34fed8b6f11}, !- Handle
  Port List 6,                            !- Name
  {f92a4d72-0ba0-4fd2-af28-80b31bc39f70}; !- HVAC Component

OS:Sizing:Zone,
  {db83bb03-fac1-4a68-98f4-055dfd79c007}, !- Handle
  {f92a4d72-0ba0-4fd2-af28-80b31bc39f70}, !- Zone or ZoneList Name
  14,                                     !- Zone Cooling Design Supply Air Temperature {C}
  40,                                     !- Zone Heating Design Supply Air Temperature {C}
  0.0085,                                 !- Zone Cooling Design Supply Air Humidity Ratio {kg-H2O/kg-air}
  0.008,                                  !- Zone Heating Design Supply Air Humidity Ratio {kg-H2O/kg-air}
  ,                                       !- Zone Heating Sizing Factor
  ,                                       !- Zone Cooling Sizing Factor
  DesignDay,                              !- Cooling Design Air Flow Method
  ,                                       !- Cooling Design Air Flow Rate {m3/s}
  ,                                       !- Cooling Minimum Air Flow per Zone Floor Area {m3/s-m2}
  ,                                       !- Cooling Minimum Air Flow {m3/s}
  ,                                       !- Cooling Minimum Air Flow Fraction
  DesignDay,                              !- Heating Design Air Flow Method
  ,                                       !- Heating Design Air Flow Rate {m3/s}
  ,                                       !- Heating Maximum Air Flow per Zone Floor Area {m3/s-m2}
  ,                                       !- Heating Maximum Air Flow {m3/s}
  ,                                       !- Heating Maximum Air Flow Fraction
  ,                                       !- Design Zone Air Distribution Effectiveness in Cooling Mode
  ;                                       !- Design Zone Air Distribution Effectiveness in Heating Mode

OS:ZoneHVAC:EquipmentList,
  {5d753c23-8855-4a4c-bcf6-cc11ecefe858}, !- Handle
  Zone HVAC Equipment List 3,             !- Name
  {f92a4d72-0ba0-4fd2-af28-80b31bc39f70}, !- Thermal Zone
  {6fb579ca-23aa-48ea-b4ea-32cbed11d063}, !- Zone Equipment 1
  1,                                      !- Zone Equipment Cooling Sequence 1
  1;                                      !- Zone Equipment Heating or No-Load Sequence 1

OS:ThermalZone,
  {7f537756-ea63-4255-8481-1957774c1ef6}, !- Handle
  Thermal Zone 4,                         !- Name
  ,                                       !- Multiplier
  ,                                       !- Ceiling Height {m}
  ,                                       !- Volume {m3}
  ,                                       !- Floor Area {m2}
  ,                                       !- Zone Inside Convection Algorithm
  ,                                       !- Zone Outside Convection Algorithm
  ,                                       !- Zone Conditioning Equipment List Name
  {b986f621-48c2-4fb7-b537-b3ec5fe906a1}, !- Zone Air Inlet Port List
  {263c954f-a0af-4c3a-89ee-974b5f2a30ef}, !- Zone Air Exhaust Port List
  {f8f1b72d-c393-40ec-855f-ba97dabb9446}, !- Zone Air Node Name
  {a365dc15-476f-4228-b805-0a9326adbe6d}, !- Zone Return Air Node Name
  ,                                       !- Primary Daylighting Control Name
  ,                                       !- Fraction of Zone Controlled by Primary Daylighting Control
  ,                                       !- Secondary Daylighting Control Name
  ,                                       !- Fraction of Zone Controlled by Secondary Daylighting Control
  ,                                       !- Illuminance Map Name
  ,                                       !- Group Rendering Name
  {b4b461ed-cc92-4165-90f2-b76d7c88bd20}, !- Thermostat Name
  No;                                     !- Use Ideal Air Loads

OS:Node,
  {b590ce4f-c364-4a77-b38c-698700877f3e}, !- Handle
  Node 4,                                 !- Name
  {f8f1b72d-c393-40ec-855f-ba97dabb9446}, !- Inlet Port
  ;                                       !- Outlet Port

OS:Connection,
  {f8f1b72d-c393-40ec-855f-ba97dabb9446}, !- Handle
  {9ca77f96-28d4-41a2-92c9-5404b89d6592}, !- Name
  {7f537756-ea63-4255-8481-1957774c1ef6}, !- Source Object
  11,                                     !- Outlet Port
  {b590ce4f-c364-4a77-b38c-698700877f3e}, !- Target Object
  2;                                      !- Inlet Port

OS:PortList,
  {b986f621-48c2-4fb7-b537-b3ec5fe906a1}, !- Handle
  Port List 7,                            !- Name
  {7f537756-ea63-4255-8481-1957774c1ef6}, !- HVAC Component
  {a0967774-9cad-46ee-8149-2e880c3dc36b}; !- Port 1

OS:PortList,
  {263c954f-a0af-4c3a-89ee-974b5f2a30ef}, !- Handle
  Port List 8,                            !- Name
  {7f537756-ea63-4255-8481-1957774c1ef6}; !- HVAC Component

OS:Sizing:Zone,
  {6b84e16b-8126-430e-a694-c7a97bfd3613}, !- Handle
  {7f537756-ea63-4255-8481-1957774c1ef6}, !- Zone or ZoneList Name
  14,                                     !- Zone Cooling Design Supply Air Temperature {C}
  40,                                     !- Zone Heating Design Supply Air Temperature {C}
  0.0085,                                 !- Zone Cooling Design Supply Air Humidity Ratio {kg-H2O/kg-air}
  0.008,                                  !- Zone Heating Design Supply Air Humidity Ratio {kg-H2O/kg-air}
  ,                                       !- Zone Heating Sizing Factor
  ,                                       !- Zone Cooling Sizing Factor
  DesignDay,                              !- Cooling Design Air Flow Method
  ,                                       !- Cooling Design Air Flow Rate {m3/s}
  ,                                       !- Cooling Minimum Air Flow per Zone Floor Area {m3/s-m2}
  ,                                       !- Cooling Minimum Air Flow {m3/s}
  ,                                       !- Cooling Minimum Air Flow Fraction
  DesignDay,                              !- Heating Design Air Flow Method
  ,                                       !- Heating Design Air Flow Rate {m3/s}
  ,                                       !- Heating Maximum Air Flow per Zone Floor Area {m3/s-m2}
  ,                                       !- Heating Maximum Air Flow {m3/s}
  ,                                       !- Heating Maximum Air Flow Fraction
  ,                                       !- Design Zone Air Distribution Effectiveness in Cooling Mode
  ;                                       !- Design Zone Air Distribution Effectiveness in Heating Mode

OS:ZoneHVAC:EquipmentList,
  {c0c466b7-7ff2-4734-b5cd-dae25b2a97aa}, !- Handle
  Zone HVAC Equipment List 4,             !- Name
  {7f537756-ea63-4255-8481-1957774c1ef6}, !- Thermal Zone
  {d8186221-bae3-4c6f-93b8-c9db923f22a7}, !- Zone Equipment 1
  1,                                      !- Zone Equipment Cooling Sequence 1
  1;                                      !- Zone Equipment Heating or No-Load Sequence 1

OS:ThermalZone,
  {4e092941-4068-4ec5-9b10-15b6ebf6f5f3}, !- Handle
  Thermal Zone 5,                         !- Name
  ,                                       !- Multiplier
  ,                                       !- Ceiling Height {m}
  ,                                       !- Volume {m3}
  ,                                       !- Floor Area {m2}
  ,                                       !- Zone Inside Convection Algorithm
  ,                                       !- Zone Outside Convection Algorithm
  ,                                       !- Zone Conditioning Equipment List Name
  {de055687-7f0a-475a-909c-9cabd9200f82}, !- Zone Air Inlet Port List
  {f0f4ef67-a601-4523-a385-4046ceb812ed}, !- Zone Air Exhaust Port List
  {c45e5aaf-a9bd-4a76-9e06-0fbcb92477e1}, !- Zone Air Node Name
  {90dba936-e42a-49cb-851d-d2ea4c2a8bbb}, !- Zone Return Air Node Name
  ,                                       !- Primary Daylighting Control Name
  ,                                       !- Fraction of Zone Controlled by Primary Daylighting Control
  ,                                       !- Secondary Daylighting Control Name
  ,                                       !- Fraction of Zone Controlled by Secondary Daylighting Control
  ,                                       !- Illuminance Map Name
  ,                                       !- Group Rendering Name
  {d8799ff3-9234-438c-9511-2cbae59076eb}, !- Thermostat Name
  No;                                     !- Use Ideal Air Loads

OS:Node,
  {88e07db1-3cb3-46ee-9945-6680d70ad168}, !- Handle
  Node 5,                                 !- Name
  {c45e5aaf-a9bd-4a76-9e06-0fbcb92477e1}, !- Inlet Port
  ;                                       !- Outlet Port

OS:Connection,
  {c45e5aaf-a9bd-4a76-9e06-0fbcb92477e1}, !- Handle
  {30ef7a89-21fc-4288-83f0-81cf562f7fd5}, !- Name
  {4e092941-4068-4ec5-9b10-15b6ebf6f5f3}, !- Source Object
  11,                                     !- Outlet Port
  {88e07db1-3cb3-46ee-9945-6680d70ad168}, !- Target Object
  2;                                      !- Inlet Port

OS:PortList,
  {de055687-7f0a-475a-909c-9cabd9200f82}, !- Handle
  Port List 9,                            !- Name
  {4e092941-4068-4ec5-9b10-15b6ebf6f5f3}, !- HVAC Component
  {e80cf23a-3f6c-4464-8b83-9921559d4936}; !- Port 1

OS:PortList,
  {f0f4ef67-a601-4523-a385-4046ceb812ed}, !- Handle
  Port List 10,                           !- Name
  {4e092941-4068-4ec5-9b10-15b6ebf6f5f3}; !- HVAC Component

OS:Sizing:Zone,
  {68247cff-44d7-43a9-9c68-4c3a80a1ab7c}, !- Handle
  {4e092941-4068-4ec5-9b10-15b6ebf6f5f3}, !- Zone or ZoneList Name
  14,                                     !- Zone Cooling Design Supply Air Temperature {C}
  40,                                     !- Zone Heating Design Supply Air Temperature {C}
  0.0085,                                 !- Zone Cooling Design Supply Air Humidity Ratio {kg-H2O/kg-air}
  0.008,                                  !- Zone Heating Design Supply Air Humidity Ratio {kg-H2O/kg-air}
  ,                                       !- Zone Heating Sizing Factor
  ,                                       !- Zone Cooling Sizing Factor
  DesignDay,                              !- Cooling Design Air Flow Method
  ,                                       !- Cooling Design Air Flow Rate {m3/s}
  ,                                       !- Cooling Minimum Air Flow per Zone Floor Area {m3/s-m2}
  ,                                       !- Cooling Minimum Air Flow {m3/s}
  ,                                       !- Cooling Minimum Air Flow Fraction
  DesignDay,                              !- Heating Design Air Flow Method
  ,                                       !- Heating Design Air Flow Rate {m3/s}
  ,                                       !- Heating Maximum Air Flow per Zone Floor Area {m3/s-m2}
  ,                                       !- Heating Maximum Air Flow {m3/s}
  ,                                       !- Heating Maximum Air Flow Fraction
  ,                                       !- Design Zone Air Distribution Effectiveness in Cooling Mode
  ;                                       !- Design Zone Air Distribution Effectiveness in Heating Mode

OS:ZoneHVAC:EquipmentList,
  {b6d57da1-46bc-4cca-885c-9b8379bf2f7b}, !- Handle
  Zone HVAC Equipment List 5,             !- Name
  {4e092941-4068-4ec5-9b10-15b6ebf6f5f3}, !- Thermal Zone
  {009ad01b-ef28-4d54-92ae-eb93185d78d0}, !- Zone Equipment 1
  1,                                      !- Zone Equipment Cooling Sequence 1
  1;                                      !- Zone Equipment Heating or No-Load Sequence 1

OS:ThermalZone,
  {96d258d6-abb9-4b3d-b4ae-d1dac2497c21}, !- Handle
  Thermal Zone 6,                         !- Name
  ,                                       !- Multiplier
  ,                                       !- Ceiling Height {m}
  ,                                       !- Volume {m3}
  ,                                       !- Floor Area {m2}
  ,                                       !- Zone Inside Convection Algorithm
  ,                                       !- Zone Outside Convection Algorithm
  ,                                       !- Zone Conditioning Equipment List Name
  {49f0578b-c2d8-4273-a050-24028fb947c6}, !- Zone Air Inlet Port List
  {06b00cf3-441a-4bb2-aabe-e680844332d1}, !- Zone Air Exhaust Port List
  {c5f1cd95-f2ad-4c08-97c2-67e847533380}, !- Zone Air Node Name
  {2450ecb6-ea78-4590-b62b-bfbff13dd4b0}, !- Zone Return Air Node Name
  ,                                       !- Primary Daylighting Control Name
  ,                                       !- Fraction of Zone Controlled by Primary Daylighting Control
  ,                                       !- Secondary Daylighting Control Name
  ,                                       !- Fraction of Zone Controlled by Secondary Daylighting Control
  ,                                       !- Illuminance Map Name
  ,                                       !- Group Rendering Name
  {8ac22283-c778-4c1e-8de8-96f3a81e3832}, !- Thermostat Name
  No;                                     !- Use Ideal Air Loads

OS:Node,
  {5635e77c-3c81-44e0-aecb-d2b906651cc5}, !- Handle
  Node 6,                                 !- Name
  {c5f1cd95-f2ad-4c08-97c2-67e847533380}, !- Inlet Port
  ;                                       !- Outlet Port

OS:Connection,
  {c5f1cd95-f2ad-4c08-97c2-67e847533380}, !- Handle
  {2edebe5f-4ae3-4c84-84b4-dc4bec632657}, !- Name
  {96d258d6-abb9-4b3d-b4ae-d1dac2497c21}, !- Source Object
  11,                                     !- Outlet Port
  {5635e77c-3c81-44e0-aecb-d2b906651cc5}, !- Target Object
  2;                                      !- Inlet Port

OS:PortList,
  {49f0578b-c2d8-4273-a050-24028fb947c6}, !- Handle
  Port List 11,                           !- Name
  {96d258d6-abb9-4b3d-b4ae-d1dac2497c21}, !- HVAC Component
  {50f574dd-386d-4f3d-ba93-4b753871fec5}; !- Port 1

OS:PortList,
  {06b00cf3-441a-4bb2-aabe-e680844332d1}, !- Handle
  Port List 12,                           !- Name
  {96d258d6-abb9-4b3d-b4ae-d1dac2497c21}; !- HVAC Component

OS:Sizing:Zone,
  {aab264bc-09a3-4609-a7d0-f3fb533b0875}, !- Handle
  {96d258d6-abb9-4b3d-b4ae-d1dac2497c21}, !- Zone or ZoneList Name
  14,                                     !- Zone Cooling Design Supply Air Temperature {C}
  40,                                     !- Zone Heating Design Supply Air Temperature {C}
  0.0085,                                 !- Zone Cooling Design Supply Air Humidity Ratio {kg-H2O/kg-air}
  0.008,                                  !- Zone Heating Design Supply Air Humidity Ratio {kg-H2O/kg-air}
  ,                                       !- Zone Heating Sizing Factor
  ,                                       !- Zone Cooling Sizing Factor
  DesignDay,                              !- Cooling Design Air Flow Method
  ,                                       !- Cooling Design Air Flow Rate {m3/s}
  ,                                       !- Cooling Minimum Air Flow per Zone Floor Area {m3/s-m2}
  ,                                       !- Cooling Minimum Air Flow {m3/s}
  ,                                       !- Cooling Minimum Air Flow Fraction
  DesignDay,                              !- Heating Design Air Flow Method
  ,                                       !- Heating Design Air Flow Rate {m3/s}
  ,                                       !- Heating Maximum Air Flow per Zone Floor Area {m3/s-m2}
  ,                                       !- Heating Maximum Air Flow {m3/s}
  ,                                       !- Heating Maximum Air Flow Fraction
  ,                                       !- Design Zone Air Distribution Effectiveness in Cooling Mode
  ;                                       !- Design Zone Air Distribution Effectiveness in Heating Mode

OS:ZoneHVAC:EquipmentList,
  {5d05f5c1-629b-4fd3-92a1-22578c55740a}, !- Handle
  Zone HVAC Equipment List 6,             !- Name
  {96d258d6-abb9-4b3d-b4ae-d1dac2497c21}, !- Thermal Zone